kpg193_v2_0_2026/network/m/KPG193_ver2_0_2026.m
function mpc = KPG193_ver2_0_2026
% Generated from KPG193_ver1_6 ACOPF hourly result.
% Bus voltage angle Va is in degrees, matching MATPOWER case format.
mpc.version = '2';

%-----  Power Flow Data  -----%%
% system MVA base
mpc.baseMVA = 100;

% bus data
%	bus_i	type	Pd	Qd	Gs	Bs	area	Vm	Va	baseKV	zone	Vmax	Vmin
mpc.bus = [
	1	1	63.3202650146	6.33202650146	0	0	1	0.98492486147	-24.032246126	154	1	1.1	0.9	;
	2	1	76.5306985952	7.65306985951	0	0	1	0.990113275317	-26.2467685804	345	1	1.05	0.95	;
	3	1	350.9995286	35.09995286	0	0	1	0.990531288668	-26.1951897841	345	1	1.05	0.95	;
	4	1	81.4096564639	8.14096564639	0	0	1	0.991380830559	-26.7712253773	345	1	1.05	0.95	;
	5	1	77.9237913683	9.19292171574	0	0	1	0.990313402706	-15.1809317225	154	1	1.1	0.9	;
	6	1	78.2171543262	7.82171543262	0	0	1	0.989937213118	-28.18758381	154	1	1.1	0.9	;
	7	1	527.769106754	52.7770745844	0	0	1	0.9928561017	-26.8701388658	345	1	1.05	0.95	;
	8	1	1204.72480405	120.472480405	0	0	1	0.990322320742	-28.0722686733	345	1	1.05	0.95	;
	9	1	304.999308434	30.4999308434	0	0	1	0.994499232745	-27.4292337214	154	1	1.1	0.9	;
	10	2	670.071445889	67.0071445889	0	0	1	0.991153420956	-28.0042488248	154	1	1.1	0.9	;
	11	1	555.007714724	55.5007714724	0	0	1	0.990441507823	-28.2935816894	345	1	1.05	0.95	;
	12	1	304.539390746	30.4539390746	0	0	1	0.99435466307	-27.4497886202	154	1	1.1	0.9	;
	13	1	328.240077876	32.8240077876	0	0	1	0.994627029225	-27.4301516622	154	1	1.1	0.9	;
	14	1	352.013214992	35.2013214992	0	0	1	0.994188656499	-27.4877338011	345	1	1.05	0.95	;
	15	1	104.132371024	10.4132371024	0	0	1	0.995216037709	-27.3469182382	154	1	1.1	0.9	;
	16	1	448.606357371	44.8606357371	0	0	1	0.995588226306	-27.3065855057	345	1	1.05	0.95	;
	17	1	483.735876368	48.3735876368	0	0	1	0.99513140848	-27.4009581793	345	1	1.05	0.95	;
	18	1	505.04032964	50.504032964	0	0	1	0.994877048561	-27.4405848896	345	1	1.05	0.95	;
	19	2	475.436910777	47.5462060757	0	0	1	0.994233779167	-27.4899218134	345	1	1.05	0.95	;
	20	1	243.023079795	24.5537635593	0	0	1	0.993136813324	-26.8150874726	154	1	1.1	0.9	;
	21	2	739.884433039	74.1141337578	0	0	1	0.991857106102	-28.042216205	345	1	1.05	0.95	;
	22	1	598.48929259	59.848929259	0	0	1	0.995558767412	-27.3030308002	345	1	1.05	0.95	;
	23	1	350.230795404	35.0230795404	0	0	1	0.993442144851	-27.5498482024	345	1	1.05	0.95	;
	24	1	572.984648529	57.2984648529	0	0	1	0.992956074957	-27.8433003395	154	1	1.1	0.9	;
	25	1	463.3571199	46.33571199	0	0	1	0.992423221157	-27.9427150547	154	1	1.1	0.9	;
	26	1	546.89481578	54.689481578	0	0	1	0.993236861782	-27.7991971339	345	1	1.05	0.95	;
	27	2	5.36534528296	3.11520625006	0	0	1	0.993688305317	-27.6380967365	345	1	1.05	0.95	;
	28	1	123.987279336	12.3987279336	0	0	1	0.992601865041	-22.5070423878	765	1	1.05	0.95	;
	29	1	602.975512959	60.2975875513	0	0	1	0.994539798705	-27.3958724363	345	1	1.05	0.95	;
	30	1	468.500864405	46.8500864405	0	0	1	0.994483172362	-27.3987712698	154	1	1.1	0.9	;
	31	1	381.024867328	38.1026060469	0	0	1	0.992757372474	-27.6189584879	154	1	1.1	0.9	;
	32	1	157.098149536	15.7098149536	0	0	1	0.993323615526	-27.56720495	345	1	1.05	0.95	;
	33	1	453.020899246	45.3020899246	0	0	1	0.993069549443	-27.5829818984	154	1	1.1	0.9	;
	34	2	1013.13308592	101.313391841	0	0	1	0.993498647741	-27.7300272292	345	1	1.05	0.95	;
	35	1	617.209809971	61.7209809971	0	0	1	0.991792561512	-27.6547134159	154	1	1.1	0.9	;
	36	1	712.022032198	71.2022032198	0	0	1	0.99479977557	-27.3772845536	345	1	1.05	0.95	;
	37	1	872.925066863	87.2925066863	0	0	1	0.993226658493	-27.4328108615	345	1	1.05	0.95	;
	38	1	353.544615486	35.3544615486	0	0	1	0.993115404848	-26.209178148	345	1	1.05	0.95	;
	39	1	682.087102192	68.2087102192	0	0	1	0.988214643248	-28.6937005906	154	1	1.1	0.9	;
	40	2	1032.19101252	103.392788213	0	0	1	0.994861324691	-26.1505215593	345	1	1.05	0.95	;
	41	1	186.818251363	18.6818251363	0	0	1	0.98331463936	-23.3164802238	154	1	1.1	0.9	;
	42	2	1140.15394187	114.015394187	0	0	1	0.986537390818	-24.9641611112	154	1	1.1	0.9	;
	43	1	594.255518615	59.4259726501	0	0	1	0.990054993227	-28.2670423187	154	1	1.1	0.9	;
	44	1	183.343919457	18.334590008	0	0	1	0.994768331161	-26.9395208399	345	1	1.05	0.95	;
	45	1	335.697314675	33.5697314675	0	0	1	1.00268542557	-25.7344583092	345	1	1.05	0.95	;
	46	1	1056.05572983	105.605572983	0	0	1	1.00138641192	-25.9484123415	345	1	1.05	0.95	;
	47	1	2674.82579656	267.482668055	0	0	1	0.991404391917	-27.2380821668	345	1	1.05	0.95	;
	48	1	186.581067967	18.6581067967	0	0	1	1.00435477679	-25.7082584279	154	1	1.1	0.9	;
	49	1	381.731749228	38.1731749228	0	0	1	1.00922226381	-24.9451399292	154	1	1.1	0.9	;
	50	1	453.945982645	45.3945982645	0	0	1	1.01070827703	-24.0403541162	765	1	1.05	0.95	;
	51	1	1818.62181628	181.862181628	0	0	1	1.02072151452	-23.6661537427	345	1	1.05	0.95	;
	52	1	418.5182805	41.85182805	0	0	2	0.993340035589	-24.2239532899	154	1	1.1	0.9	;
	53	2	868.591562648	86.8591562648	0	0	2	1.02800304294	-20.1293670471	765	1	1.05	0.95	;
	54	1	373.197849756	37.3197849756	0	0	2	1.00826476335	-23.8172563492	345	1	1.05	0.95	;
	55	1	1086.31347459	108.63139926	0	0	2	1.01515250849	-22.5105672944	345	1	1.05	0.95	;
	56	1	150.927632659	15.0927632659	0	0	2	0.999430643225	-24.3866855546	154	1	1.1	0.9	;
	57	1	1710.46313513	171.046352974	0	0	2	1.0115762239	-22.623055388	345	1	1.05	0.95	;
	58	1	1280.40469515	128.040579994	0	0	2	1.02489872363	-18.1051645792	345	1	1.05	0.95	;
	59	2	116.258918886	11.6264778808	0	0	2	1.02729549588	-16.3892584635	345	1	1.05	0.95	;
	60	1	169.317183785	16.9317183785	0	0	2	1.01262155431	-20.7946537084	345	1	1.05	0.95	;
	61	1	810.596808056	81.0596882741	0	0	2	1.00895633417	-23.4493146124	154	1	1.1	0.9	;
	62	1	954.0740857	95.4074434997	0	0	2	1.01136043072	-23.0232031359	765	1	1.05	0.95	;
	63	1	132.181693034	13.2181693034	0	0	2	1.0219059419	-20.3110569604	765	1	1.05	0.95	;
	64	1	481.629237983	48.1629237983	0	0	2	1.00370277756	-21.1941771292	345	1	1.05	0.95	;
	65	1	78.7314531486	11.4539269604	0	0	3	0.978581512351	-7.65903312344	154	1	1.1	0.9	;
	66	1	27.8910344717	3.30873563286	0	0	3	0.980380095134	-17.2642427215	154	1	1.1	0.9	;
	67	1	23.6900428475	2.62150355936	0	0	3	0.976545877904	-14.0416474315	154	1	1.1	0.9	;
	68	1	37.4655112139	4.13892522721	0	0	3	0.982759938823	-5.59632619672	345	1	1.05	0.95	;
	69	1	40.1297525118	4.30675292654	0	0	3	0.9759141926	-11.6875441681	154	1	1.1	0.9	;
	70	1	237.459361408	23.7537875855	0	0	3	0.979662510723	-16.9869545542	154	1	1.1	0.9	;
	71	2	267.889035458	26.7889035458	0	0	3	0.986759138225	-3.14846814637	345	1	1.05	0.95	;
	72	1	93.5281603942	9.35281603942	0	0	3	0.975107143151	-16.3016958708	154	1	1.1	0.9	;
	73	2	295.65233152	30.372996833	0	0	3	0.988092578581	-0.381056420069	345	1	1.05	0.95	;
	74	1	70.2493026783	8.63763312953	0	0	3	0.973523599926	-16.90909662	154	1	1.1	0.9	;
	75	2	170.625089437	17.9257757999	0	0	3	0.992251491047	1.70416157189	345	1	1.05	0.95	;
	76	1	75.0909045414	7.97992629943	0	0	3	0.974498987683	-6.03879187039	154	1	1.1	0.9	;
	77	1	329.086918017	32.9086918017	0	0	3	0.970350331703	-18.4424482739	154	1	1.1	0.9	;
	78	1	-17.2383790114	7.96476837207	0	0	3	0.986776915179	-12.3083814065	154	1	1.1	0.9	;
	79	1	145.184591143	14.5184591143	0	0	3	0.971740637326	-8.80043946682	154	1	1.1	0.9	;
	80	1	-408.590821128	3.85243085826	0	0	3	0.980431931027	-5.26799009353	765	1	1.05	0.95	;
	81	1	210.276515046	21.0277802041	0	0	3	0.974312317032	-11.396756596	345	1	1.05	0.95	;
	82	2	50.0020595438	9.14301096842	0	0	3	0.987555010164	-0.553556697817	765	1	1.05	0.95	;
	83	1	240.439260109	24.0440169113	0	0	3	0.966650789427	-11.868446617	154	1	1.1	0.9	;
	84	1	339.75799349	35.0731470469	0	0	3	0.979106883714	-21.6606156459	345	1	1.05	0.95	;
	85	1	226.452959912	22.6452959912	0	0	3	0.975953760103	-8.45866272047	154	1	1.1	0.9	;
	86	1	221.758195716	22.1758500736	0	0	3	0.979163876509	-8.9419019489	345	1	1.05	0.95	;
	87	1	27.2269294367	5.07318925986	0	0	3	0.980479372058	-9.51662741245	345	1	1.05	0.95	;
	88	1	-203.785625427	1.42650136616	0	0	3	0.984643080591	-7.23821939812	154	1	1.1	0.9	;
	89	1	76.9485480343	7.69494499697	0	0	3	0.974162200957	-13.3472938926	154	1	1.1	0.9	;
	90	1	148.962112359	15.4107321441	0	0	3	0.979839711611	-9.84689592245	154	1	1.1	0.9	;
	91	1	51.5877975077	5.15877975077	0	0	3	1.00267195386	-21.9376610576	154	1	1.1	0.9	;
	92	1	-8.06189468181	2.61822524863	0	0	3	0.981976781016	-9.4950402848	345	1	1.05	0.95	;
	93	1	102.077596194	10.2079235215	0	0	3	0.977459849877	-15.1044698465	154	1	1.1	0.9	;
	94	1	-31.6701298407	3.77327430775	0	0	3	0.982256036282	-7.11458962298	154	1	1.1	0.9	;
	95	1	57.9828207369	5.79828207369	0	0	3	0.981332019264	-10.3031749464	345	1	1.05	0.95	;
	96	1	150.011273246	15.0011273246	0	0	4	1.00451686172	-19.6957857597	154	1	1.1	0.9	;
	97	1	46.6768744055	4.66768744055	0	0	4	1.01065160542	-17.5188354331	345	1	1.05	0.95	;
	98	1	238.124697782	24.0647500116	0	0	4	0.99697736175	-21.2153952921	154	1	1.1	0.9	;
	99	1	772.102153927	77.2102153927	0	0	4	0.994533119613	-21.7051691345	154	1	1.1	0.9	;
	100	2	180.940396986	18.0940396986	0	0	4	1.01472904941	-15.6837405546	345	1	1.05	0.95	;
	101	1	282.189285848	28.2189285848	0	0	4	0.994361317348	-21.2975868412	154	1	1.1	0.9	;
	102	1	83.0755290381	8.30755290381	0	0	4	1.00117566657	-19.1529311863	345	1	1.05	0.95	;
	103	1	87.0911529776	8.70911529776	0	0	4	1.00673004468	-17.5342304939	154	1	1.1	0.9	;
	104	1	183.982342192	18.3982342192	0	0	4	1.00435647346	-18.482216112	345	1	1.05	0.95	;
	105	1	123.335979184	12.3335979184	0	0	4	0.996523918289	-18.590988097	154	1	1.1	0.9	;
	106	2	145.96586507	14.596586507	0	0	4	0.998844146989	-15.2199234096	154	1	1.1	0.9	;
	107	1	3.87154759699	2.77152205715	0	0	4	0.995899032445	-17.1787051983	345	1	1.05	0.95	;
	108	1	757.605204893	75.7605204893	0	0	4	0.996954491819	-16.1141571725	345	1	1.05	0.95	;
	109	1	396.733599007	39.6733599007	0	0	4	0.997326331813	-16.0696251057	345	1	1.05	0.95	;
	110	1	232.172555712	23.2172555712	0	0	4	0.987798232145	-17.0182435805	154	1	1.1	0.9	;
	111	1	147.026033955	14.7026033955	0	0	4	0.995609934435	-14.1264185052	345	1	1.05	0.95	;
	112	1	27.1813534627	2.71813534627	0	0	4	0.986886171851	-17.6039904102	154	1	1.1	0.9	;
	113	1	577.780319584	57.7780319584	0	0	4	0.986698727386	-16.5620934611	154	1	1.1	0.9	;
	114	1	63.8658541152	6.39109061949	0	0	4	0.993341620835	-14.0442165052	154	1	1.1	0.9	;
	115	1	27.869048998	2.7869048998	0	0	4	0.986379959454	-17.8160661118	154	1	1.1	0.9	;
	116	1	39.3419097364	3.93419097364	0	0	4	0.991220470954	-14.2788808527	154	1	1.1	0.9	;
	117	1	226.400440076	23.7551984177	0	0	4	0.991871074165	-13.3807037195	154	1	1.1	0.9	;
	118	1	86.2747786345	8.62747786345	0	0	4	0.999688740226	-8.50964011064	154	1	1.1	0.9	;
	119	1	86.915173803	8.6915173803	0	0	4	0.998471143569	-11.5072759441	345	1	1.05	0.95	;
	120	1	35.6372823011	3.56372823012	0	0	4	0.992496368498	-13.0218824638	154	1	1.1	0.9	;
	121	1	82.9343776552	8.29343776552	0	0	4	0.992769934688	-10.9554116	154	1	1.1	0.9	;
	122	1	68.6778835121	6.86778835121	0	0	4	0.993617173882	-12.1818665239	154	1	1.1	0.9	;
	123	1	55.8577801923	5.58577801923	0	0	4	0.99316440929	-12.7816438491	154	1	1.1	0.9	;
	124	2	108.552706171	10.8552706171	0	0	4	1.00874067907	-5.31209434692	345	1	1.05	0.95	;
	125	1	23.119178874	2.3119178874	0	0	4	0.992798758115	-12.9531056589	154	1	1.1	0.9	;
	126	1	385.152165525	38.5152165525	0	0	4	0.99574426104	-11.1582203721	345	1	1.05	0.95	;
	127	1	303.497692177	30.3497692177	0	0	4	0.993551300306	-11.9803022897	154	1	1.1	0.9	;
	128	1	458.555110323	45.8555110323	0	0	4	0.984895284159	-14.0056221596	154	1	1.1	0.9	;
	129	1	54.275126275	5.4275126275	0	0	4	0.990199860007	-15.7918722298	154	1	1.1	0.9	;
	130	1	65.1007936691	6.86596176644	0	0	4	0.994684619526	-12.0684439872	345	1	1.05	0.95	;
	131	1	175.951298782	17.5951298782	0	0	4	0.989873662887	-13.6627945108	154	1	1.1	0.9	;
	132	1	94.4514035777	9.44514035777	0	0	4	0.990858649854	-15.5965163227	154	1	1.1	0.9	;
	133	1	275.214022296	28.2698071494	0	0	4	0.993045887971	-12.6693743415	345	1	1.05	0.95	;
	134	1	644.073283159	64.4073283159	0	0	4	0.993873796014	-12.0209768532	345	1	1.05	0.95	;
	135	1	136.620731761	13.668858649	0	0	4	0.990343193757	-15.5816018501	154	1	1.1	0.9	;
	136	1	157.185321249	15.7185321249	0	0	4	0.993566443867	-13.546630263	345	1	1.05	0.95	;
	137	2	1868.42515953	187.063974724	0	0	4	0.990927796029	-12.9922380672	345	1	1.05	0.95	;
	138	1	40.4232751837	4.04232751837	0	0	4	0.992307548663	-14.0485081896	154	1	1.1	0.9	;
	139	1	42.8867110042	4.28867110042	0	0	4	0.991260717255	-15.7201265488	154	1	1.1	0.9	;
	140	1	46.8396075425	4.95940257045	0	0	4	0.991250635562	-14.6495171343	154	1	1.1	0.9	;
	141	1	51.5501071577	5.15501071578	0	0	4	0.99113655192	-14.840609397	154	1	1.1	0.9	;
	142	1	70.0456410941	7.00456410941	0	0	4	0.992314954568	-13.8759326963	154	1	1.1	0.9	;
	143	1	100.702733288	10.0711477633	0	0	4	0.989686380631	-15.5076951315	154	1	1.1	0.9	;
	144	1	46.2977509342	4.63282557074	0	0	4	0.989767647404	-15.8882922493	154	1	1.1	0.9	;
	145	1	134.776537789	14.3909457766	0	0	4	0.983476237515	-17.2384405277	154	1	1.1	0.9	;
	146	1	37.752637544	4.20901701002	0	0	5	0.977123668339	-11.922164972	154	1	1.1	0.9	;
	147	1	57.0553518723	5.70553518723	0	0	5	0.997044745193	-19.2247380722	154	1	1.1	0.9	;
	148	1	308.904246789	30.8904246789	0	0	5	0.967443608171	-15.4395526051	154	1	1.1	0.9	;
	149	1	1222.05745778	122.205745778	0	0	5	0.97268773637	-14.0126562568	345	1	1.05	0.95	;
	150	1	669.190199599	67.9584067649	0	0	5	0.979266563377	-10.84180324	345	1	1.05	0.95	;
	151	1	562.759005008	57.4355677606	0	0	5	0.980286858063	-10.5864191398	345	1	1.05	0.95	;
	152	1	257.409141642	25.7409141642	0	0	5	0.977816159537	-12.4578061791	345	1	1.05	0.95	;
	153	1	201.708120591	20.1708120591	0	0	5	0.976074317494	-11.4907783873	154	1	1.1	0.9	;
	154	1	138.062483345	13.8062614437	0	0	5	0.973307170523	-13.7131596792	154	1	1.1	0.9	;
	155	1	386.866093576	38.6868541805	0	0	5	0.972647671911	-13.4162384855	154	1	1.1	0.9	;
	156	1	416.78350206	41.678350206	0	0	5	0.977011527375	-11.3556637961	154	1	1.1	0.9	;
	157	1	196.207169714	19.6207169714	0	0	5	0.972377368825	-13.5414762508	154	1	1.1	0.9	;
	158	1	403.819683367	51.3304603389	0	0	5	0.978698240049	-10.371532655	154	1	1.1	0.9	;
	159	1	357.007765688	35.7007765688	0	0	5	0.98039678692	-10.4329716455	345	1	1.05	0.95	;
	160	1	1018.8900459	101.88900459	0	0	5	0.971300771816	-13.815631746	154	1	1.1	0.9	;
	161	1	168.008517583	16.8008517583	0	0	5	0.986254440709	-11.1379522101	345	1	1.05	0.95	;
	162	1	60.6227128251	6.06227128251	0	0	5	0.986450679858	-11.6054256319	154	1	1.1	0.9	;
	163	1	63.7631436656	6.37631436656	0	0	5	0.985672264764	-8.94163435924	345	1	1.05	0.95	;
	164	1	51.1244185516	5.36239624351	0	0	5	0.985851382594	-11.5749337192	154	1	1.1	0.9	;
	165	1	1563.57296109	156.357367177	0	0	5	0.983227862973	-8.79240468215	345	1	1.05	0.95	;
	166	2	501.293141188	50.2221732131	0	0	5	0.992062974113	-6.15894937698	345	1	1.05	0.95	;
	167	1	2086.79211175	208.679301819	0	0	5	0.990904485006	-6.35864330808	345	1	1.05	0.95	;
	168	1	132.892766128	13.2892766128	0	0	5	0.992177231061	-7.29086011084	765	1	1.05	0.95	;
	169	1	37.4514626539	3.74514626539	0	0	5	0.988376995267	-11.0019608023	154	1	1.1	0.9	;
	170	1	148.241118242	16.4568881252	0	0	5	0.987260554989	-7.78157338532	154	1	1.1	0.9	;
	171	1	26.6874353904	4.60689215635	0	0	5	0.993596412976	-8.97406254399	345	1	1.05	0.95	;
	172	1	475.989121876	48.5860644288	0	0	5	0.988470504731	-6.28284851616	154	1	1.1	0.9	;
	173	1	48.5789188206	5.04174201308	0	0	5	0.992890210425	-8.89125912157	345	1	1.05	0.95	;
	174	1	365.595781142	36.5595781142	0	0	5	0.990383879651	-7.80005538056	345	1	1.05	0.95	;
	175	2	165.522392799	16.5760864128	0	0	5	1.00222791834	-2.13136054942	765	1	1.05	0.95	;
	176	1	480.339655503	48.0339655503	0	0	5	0.989567067435	-6.3545838485	345	1	1.05	0.95	;
	177	1	614.162894526	61.4163843552	0	0	5	0.988286072697	-6.33153129005	345	1	1.05	0.95	;
	178	1	694.224264519	69.4224689843	0	0	5	0.982397874511	-7.90093788967	154	1	1.1	0.9	;
	179	1	370.545621405	37.0545621405	0	0	5	0.996988397546	-3.75306135085	345	1	1.05	0.95	;
	180	1	346.569719748	34.6569719748	0	0	5	0.988988602287	-7.70622180319	154	1	1.1	0.9	;
	181	1	314.187779553	31.4187779553	0	0	5	0.995398304176	-4.38094166291	345	1	1.05	0.95	;
	182	1	567.211731171	56.721352668	0	0	5	0.983863584029	-7.64702803901	345	1	1.05	0.95	;
	183	1	256.590187671	25.6590790771	0	0	5	0.988553849343	-5.84690731585	345	1	1.05	0.95	;
	184	1	506.975110658	50.6976577654	0	0	5	0.9967325678	-3.80488424187	345	1	1.05	0.95	;
	185	1	289.729332367	28.9729332367	0	0	5	0.994801498861	-4.44027506922	154	1	1.1	0.9	;
	186	2	433.853691431	43.3857639525	0	0	5	0.995568781952	-4.44690370129	345	1	1.05	0.95	;
	187	1	59.962279749	5.9962279749	0	0	5	0.995543144084	-4.45518847268	345	1	1.05	0.95	;
	188	1	54.7579063242	5.47636013891	0	0	5	0.994492221206	-10.3033466322	154	1	1.1	0.9	;
	189	1	99.7537415115	9.99655767476	0	0	5	0.997834681631	-0.9534105626	154	1	1.1	0.9	;
	190	3	179.037012692	17.9376417853	0	0	5	1	0	345	1	1.05	0.95	;
	191	1	249.652469561	24.9654266944	0	0	5	0.997351352346	-0.910274595624	154	1	1.1	0.9	;
	192	2	124.702986102	12.4703873078	0	0	5	1.0002765471	0.0348208919663	154	1	1.1	0.9	;
	193	2	35.5705574321	3.55705574321	0	0	5	1.00233902174	-8.44044812133	345	1	1.05	0.95	;
];

% generator data
%	bus	Pg	Qg	Qmax	Qmin	Vg	mBase	status	Pmax	Pmin	Pc1	Pc2	Qc1min	Qc1max	Qc2min	Qc2max	ramp_agc	ramp_10	ramp_30	ramp_q	apf
mpc.gen = [
	3	0	0	362.5	-362.5	0.990531288668	100	0	725	377	0	0	0	0	0	0	0	120.8333333	362.5	362.5	0	;
	3	0	0	362.5	-362.5	0.990531288668	100	0	725	377	0	0	0	0	0	0	0	120.8333333	362.5	362.5	0	;
	3	0	0	437.1	-437.1	0.990531288668	100	0	874.2	454.584	0	0	0	0	0	0	0	145.7	437.1	437.1	0	;
	4	0	0	262.15	-262.15	0.991380830559	100	0	524.3	272.636	0	0	0	0	0	0	0	87.38333333	262.15	262.15	0	;
	4	0	0	429.2	-429.2	0.991380830559	100	0	858.4	446.368	0	0	0	0	0	0	0	143.0666667	429.2	429.2	0	;
	4	0	0	429.2	-429.2	0.991380830559	100	0	858.4	446.368	0	0	0	0	0	0	0	143.0666667	429.2	429.2	0	;
	8	0	0	423.8	-423.8	0.990322320742	100	0	847.6	440.752	0	0	0	0	0	0	0	141.2666667	423.8	423.8	0	;
	8	0	0	423.8	-423.8	0.990322320742	100	0	847.6	440.752	0	0	0	0	0	0	0	141.2666667	423.8	423.8	0	;
	8	0	0	257.75	-257.75	0.990322320742	100	0	515.5	268.06	0	0	0	0	0	0	0	85.91666667	257.75	257.75	0	;
	9	0	0	57.705	-57.705	0.994499232745	100	0	115.41	60.0132	0	0	0	0	0	0	0	19.235	57.705	57.705	0	;
	9	0	0	18.5	-18.5	0.994499232745	100	0	37	19.24	0	0	0	0	0	0	0	6.166666667	18.5	18.5	0	;
	10	0	0	300	-300	0.991153420956	100	0	600	312	0	0	0	0	0	0	0	100	300	300	0	;
	10	278.076519423	1.35891799003	150	-150	0.991153420956	100	1	300	156	0	0	0	0	0	0	0	50	150	150	0	;
	19	0	0	184.5865	-184.5865	0.994233779167	100	0	369.173	191.96996	0	0	0	0	0	0	0	61.52883333	184.5865	184.5865	0	;
	19	345.587802144	2.76597313534	184.5865	-184.5865	0.994233779167	100	1	369.173	191.96996	0	0	0	0	0	0	0	61.52883333	184.5865	184.5865	0	;
	20	0	0	181.9055	-181.9055	0.993136813324	100	0	363.811	189.18172	0	0	0	0	0	0	0	60.63516667	181.9055	181.9055	0	;
	21	429.584156851	6.01516643321	225	-225	0.991857106102	100	1	450	234	0	0	0	0	0	0	0	75	225	225	0	;
	21	0	0	225	-225	0.991857106102	100	0	450	234	0	0	0	0	0	0	0	75	225	225	0	;
	21	0	0	225	-225	0.991857106102	100	0	450	234	0	0	0	0	0	0	0	75	225	225	0	;
	21	0	0	225	-225	0.991857106102	100	0	450	234	0	0	0	0	0	0	0	75	225	225	0	;
	24	0	0	10.5	-10.5	0.992956074957	100	0	21	10.92	0	0	0	0	0	0	0	3.5	10.5	10.5	0	;
	26	0	0	225	-225	0.993236861782	100	0	450	234	0	0	0	0	0	0	0	75	225	225	0	;
	27	0	0	63.5	-63.5	0.993688305317	100	0	127	66.04	0	0	0	0	0	0	0	21.16666667	63.5	63.5	0	;
	27	164.244711585	-9.3574014168	93.65	-93.65	0.993688305317	100	1	187.3	97.396	0	0	0	0	0	0	0	31.21666667	93.65	93.65	0	;
	34	201.248236062	-6.57965593877	112.5	-112.5	0.993498647741	100	1	225	117	0	0	0	0	0	0	0	37.5	112.5	112.5	0	;
	34	201.248236062	-6.57965593877	112.5	-112.5	0.993498647741	100	1	225	117	0	0	0	0	0	0	0	37.5	112.5	112.5	0	;
	34	0	0	112.5	-112.5	0.993498647741	100	0	225	117	0	0	0	0	0	0	0	37.5	112.5	112.5	0	;
	34	201.248236062	-6.57965593877	112.5	-112.5	0.993498647741	100	1	225	117	0	0	0	0	0	0	0	37.5	112.5	112.5	0	;
	34	0	0	112.5	-112.5	0.993498647741	100	0	225	117	0	0	0	0	0	0	0	37.5	112.5	112.5	0	;
	34	201.248236062	-6.57965593877	112.5	-112.5	0.993498647741	100	1	225	117	0	0	0	0	0	0	0	37.5	112.5	112.5	0	;
	34	0	0	112.5	-112.5	0.993498647741	100	0	225	117	0	0	0	0	0	0	0	37.5	112.5	112.5	0	;
	34	0	0	112.5	-112.5	0.993498647741	100	0	225	117	0	0	0	0	0	0	0	37.5	112.5	112.5	0	;
	34	0	0	251.7695	-251.7695	0.993498647741	100	0	503.539	261.84028	0	0	0	0	0	0	0	83.92316667	251.7695	251.7695	0	;
	34	0	0	254.454	-254.454	0.993498647741	100	0	508.908	264.63216	0	0	0	0	0	0	0	84.818	254.454	254.454	0	;
	34	0	0	225	-225	0.993498647741	100	0	450	234	0	0	0	0	0	0	0	75	225	225	0	;
	34	427.019890446	4.54332917609	225	-225	0.993498647741	100	1	450	234	0	0	0	0	0	0	0	75	225	225	0	;
	34	0	0	225	-225	0.993498647741	100	0	450	234	0	0	0	0	0	0	0	75	225	225	0	;
	34	0	0	287.3	-287.3	0.993498647741	100	0	574.6	298.792	0	0	0	0	0	0	0	95.76666667	287.3	287.3	0	;
	34	557.854515247	7.50139550852	287.3	-287.3	0.993498647741	100	1	574.6	298.792	0	0	0	0	0	0	0	95.76666667	287.3	287.3	0	;
	34	0	0	187.8	-187.8	0.993498647741	100	0	375.6	195.312	0	0	0	0	0	0	0	62.6	187.8	187.8	0	;
	34	0	0	187.8	-187.8	0.993498647741	100	0	375.6	195.312	0	0	0	0	0	0	0	62.6	187.8	187.8	0	;
	34	0	0	187.8	-187.8	0.993498647741	100	0	375.6	195.312	0	0	0	0	0	0	0	62.6	187.8	187.8	0	;
	36	0	0	286.895	-286.895	0.99479977557	100	0	573.79	298.3708	0	0	0	0	0	0	0	95.63166667	286.895	286.895	0	;
	36	0	0	174.137	-174.137	0.99479977557	100	0	348.274	181.10248	0	0	0	0	0	0	0	58.04566667	174.137	174.137	0	;
	36	0	0	206.3	-206.3	0.99479977557	100	0	412.6	214.552	0	0	0	0	0	0	0	68.76666667	206.3	206.3	0	;
	36	0	0	73.157	-73.157	0.99479977557	100	0	146.314	76.08328	0	0	0	0	0	0	0	24.38566667	73.157	73.157	0	;
	37	0	0	12	-12	0.993226658493	100	0	24	12.48	0	0	0	0	0	0	0	4	12	12	0	;
	39	0	0	240.845	-240.845	0.988214643248	100	0	481.69	250.4788	0	0	0	0	0	0	0	80.28166667	240.845	240.845	0	;
	39	0	0	240.845	-240.845	0.988214643248	100	0	481.69	250.4788	0	0	0	0	0	0	0	80.28166667	240.845	240.845	0	;
	40	0	0	30	-30	0.994861324691	100	0	60	31.2	0	0	0	0	0	0	0	10	30	30	0	;
	40	0	0	375.6	-375.6	0.994861324691	100	0	751.2	390.624	0	0	0	0	0	0	0	125.2	375.6	375.6	0	;
	40	779.445360292	16.4772085771	400	-400	0.994861324691	100	1	800	320	0	0	0	0	0	0	0	88	264	400	0	;
	40	779.445360292	16.4772085771	400	-400	0.994861324691	100	1	800	320	0	0	0	0	0	0	0	88	264	400	0	;
	40	849.47060184	17.1790609567	435	-435	0.994861324691	100	1	870	348	0	0	0	0	0	0	0	95.7	287.1	435	0	;
	40	849.47060184	17.1790609567	435	-435	0.994861324691	100	1	870	348	0	0	0	0	0	0	0	95.7	287.1	435	0	;
	40	850.88910037	17.1790609567	435	-435	0.994861324691	100	1	870	348	0	0	0	0	0	0	0	95.7	287.1	435	0	;
	40	849.47060184	17.1790609567	435	-435	0.994861324691	100	1	870	348	0	0	0	0	0	0	0	95.7	287.1	435	0	;
	43	0	0	72.394	-72.394	0.990054993227	100	0	144.788	75.28976	0	0	0	0	0	0	0	24.13133333	72.394	72.394	0	;
	43	0	0	19.45	-19.45	0.990054993227	100	0	38.9	20.228	0	0	0	0	0	0	0	6.483333333	19.45	19.45	0	;
	45	0	0	255.9	-255.9	1.00268542557	100	0	511.8	266.136	0	0	0	0	0	0	0	85.3	255.9	255.9	0	;
	47	0	0	0	0	0.991404391917	100	0	0	0	0	0	0	0	0	0	0	0	0	0	0	;
	47	0	0	0	0	0.991404391917	100	0	0	0	0	0	0	0	0	0	0	0	0	0	0	;
	47	0	0	0	0	0.991404391917	100	0	0	0	0	0	0	0	0	0	0	0	0	0	0	;
	47	0	0	0	0	0.991404391917	100	0	0	0	0	0	0	0	0	0	0	0	0	0	0	;
	47	0	0	434.25	-434.25	0.991404391917	100	0	868.5	451.62	0	0	0	0	0	0	0	144.75	434.25	434.25	0	;
	47	0	0	431.65	-431.65	0.991404391917	100	0	863.3	448.916	0	0	0	0	0	0	0	143.8833333	431.65	431.65	0	;
	48	0	0	218.05	-218.05	1.00435477679	100	0	436.1	226.772	0	0	0	0	0	0	0	72.68333333	218.05	218.05	0	;
	48	0	0	189.19	-189.19	1.00435477679	100	0	378.38	196.7576	0	0	0	0	0	0	0	63.06333333	189.19	189.19	0	;
	48	0	0	189.19	-189.19	1.00435477679	100	0	378.38	196.7576	0	0	0	0	0	0	0	63.06333333	189.19	189.19	0	;
	49	0	0	384.915	-384.915	1.00922226381	100	0	769.83	400.3116	0	0	0	0	0	0	0	128.305	384.915	384.915	0	;
	53	0	0	250.375	-250.375	1.02800304294	100	0	500.75	260.39	0	0	0	0	0	0	0	83.45833333	250.375	250.375	0	;
	53	0	0	266.5	-266.5	1.02800304294	100	0	533	277.16	0	0	0	0	0	0	0	88.83333333	266.5	266.5	0	;
	53	0	0	191	-191	1.02800304294	100	0	382	198.64	0	0	0	0	0	0	0	63.66666667	191	191	0	;
	53	0	0	423	-423	1.02800304294	100	0	846	439.92	0	0	0	0	0	0	0	141	423	423	0	;
	53	474.544839105	1.39532486773	250	-250	1.02800304294	100	1	500	200	0	0	0	0	0	0	0	55	165	250	0	;
	53	475.459221987	1.39532486773	250	-250	1.02800304294	100	1	500	200	0	0	0	0	0	0	0	55	165	250	0	;
	53	475.459221987	1.39532486773	250	-250	1.02800304294	100	1	500	200	0	0	0	0	0	0	0	55	165	250	0	;
	53	475.459221987	1.39532486773	250	-250	1.02800304294	100	1	500	200	0	0	0	0	0	0	0	55	165	250	0	;
	53	475.868238507	1.39532486773	250	-250	1.02800304294	100	1	500	200	0	0	0	0	0	0	0	55	165	250	0	;
	53	475.868238507	1.39532486773	250	-250	1.02800304294	100	1	500	200	0	0	0	0	0	0	0	55	165	250	0	;
	53	475.459221987	1.39532486773	250	-250	1.02800304294	100	1	500	200	0	0	0	0	0	0	0	55	165	250	0	;
	53	475.459221987	1.39532486773	250	-250	1.02800304294	100	1	500	200	0	0	0	0	0	0	0	55	165	250	0	;
	53	995.301363618	6.31832853988	510	-510	1.02800304294	100	1	1020	408	0	0	0	0	0	0	0	112.2	336.6	510	0	;
	53	994.885461691	6.31832853988	510	-510	1.02800304294	100	1	1020	408	0	0	0	0	0	0	0	112.2	336.6	510	0	;
	57	0	0	50.85	-50.85	1.0115762239	100	0	101.7	52.884	0	0	0	0	0	0	0	16.95	50.85	50.85	0	;
	58	0	0	0	0	1.02489872363	100	0	0	0	0	0	0	0	0	0	0	0	0	0	0	;
	59	0	0	173.165	-173.165	1.02729549588	100	0	346.33	180.0916	0	0	0	0	0	0	0	57.72166667	173.165	173.165	0	;
	59	0	0	0	0	1.02729549588	100	0	0	0	0	0	0	0	0	0	0	0	0	0	0	;
	59	0	0	0	0	1.02729549588	100	0	0	0	0	0	0	0	0	0	0	0	0	0	0	;
	59	474.316094586	-2.9525561665	250	-250	1.02729549588	100	1	500	200	0	0	0	0	0	0	0	55	165	250	0	;
	59	474.928950073	-2.9525561665	250	-250	1.02729549588	100	1	500	200	0	0	0	0	0	0	0	55	165	250	0	;
	59	474.316094586	-2.9525561665	250	-250	1.02729549588	100	1	500	200	0	0	0	0	0	0	0	55	165	250	0	;
	59	474.316094586	-2.9525561665	250	-250	1.02729549588	100	1	500	200	0	0	0	0	0	0	0	55	165	250	0	;
	59	474.316094586	-2.9525561665	250	-250	1.02729549588	100	1	500	200	0	0	0	0	0	0	0	55	165	250	0	;
	59	473.184785615	-2.9525561665	250	-250	1.02729549588	100	1	500	200	0	0	0	0	0	0	0	55	165	250	0	;
	59	1023.7577168	0.478775916365	525	-525	1.02729549588	100	1	1050	420	0	0	0	0	0	0	0	115.5	346.5	525	0	;
	59	1023.7577168	0.478775916365	525	-525	1.02729549588	100	1	1050	420	0	0	0	0	0	0	0	115.5	346.5	525	0	;
	62	0	0	0	0	1.01136043072	100	0	0	0	0	0	0	0	0	0	0	0	0	0	0	;
	64	0	0	265.2205	-265.2205	1.00370277756	100	0	530.441	275.82932	0	0	0	0	0	0	0	88.40683333	265.2205	265.2205	0	;
	70	0	0	215.6	-215.6	0.979662510723	100	0	431.2	224.224	0	0	0	0	0	0	0	71.86666667	215.6	215.6	0	;
	71	1013.16150479	7.20383135834	520	-520	0.986759138225	100	1	1040	416	0	0	0	0	0	0	0	114.4	343.2	520	0	;
	73	182.909941898	4.70620412187	100	-100	0.988092578581	100	1	200	80	0	0	0	0	0	0	0	22	66	100	0	;
	73	182.909941898	4.70620412187	100	-100	0.988092578581	100	1	200	80	0	0	0	0	0	0	0	22	66	100	0	;
	73	569.68540509	20.6768946818	297.5	-297.5	0.988092578581	100	1	595	238	0	0	0	0	0	0	0	65.45	196.35	297.5	0	;
	73	568.957069822	20.6768946818	297.5	-297.5	0.988092578581	100	1	595	238	0	0	0	0	0	0	0	65.45	196.35	297.5	0	;
	79	0	0	424	-424	0.971740637326	100	0	848	440.96	0	0	0	0	0	0	0	141.3333333	424	424	0	;
	75	942.557597084	30.3522045395	511	-511	0.992251491047	100	1	1022	408.8	0	0	0	0	0	0	0	112.42	337.26	511	0	;
	75	942.557597084	30.3522045395	511	-511	0.992251491047	100	1	1022	408.8	0	0	0	0	0	0	0	112.42	337.26	511	0	;
	82	934.858425158	56.8129569494	475	-475	0.987555010164	100	1	950	902.5	0	0	0	0	0	0	0	28.5	85.5	475	0	;
	82	934.858425158	56.8129569494	475	-475	0.987555010164	100	1	950	902.5	0	0	0	0	0	0	0	28.5	85.5	475	0	;
	82	984.273388331	57.4193903432	500	-500	0.987555010164	100	1	1000	950	0	0	0	0	0	0	0	30	90	500	0	;
	82	984.273388331	57.4193903432	500	-500	0.987555010164	100	1	1000	950	0	0	0	0	0	0	0	30	90	500	0	;
	82	984.273388331	57.4193903432	500	-500	0.987555010164	100	1	1000	950	0	0	0	0	0	0	0	30	90	500	0	;
	82	984.273388331	57.4193903432	500	-500	0.987555010164	100	1	1000	950	0	0	0	0	0	0	0	30	90	500	0	;
	82	1379.91728716	60.0745580612	700	-700	0.987555010164	100	1	1400	1330	0	0	0	0	0	0	0	42	126	700	0	;
	87	0	0	180.8	-180.8	0.980479372058	100	0	361.6	188.032	0	0	0	0	0	0	0	60.26666667	180.8	180.8	0	;
	98	0	0	44	-44	0.99697736175	100	0	88	45.76	0	0	0	0	0	0	0	14.66666667	44	44	0	;
	99	0	0	24.15	-24.15	0.994533119613	100	0	48.3	25.116	0	0	0	0	0	0	0	8.05	24.15	24.15	0	;
	100	0	0	225	-225	1.01472904941	100	0	450	234	0	0	0	0	0	0	0	75	225	225	0	;
	100	0	0	225	-225	1.01472904941	100	0	450	234	0	0	0	0	0	0	0	75	225	225	0	;
	100	0	0	225	-225	1.01472904941	100	0	450	234	0	0	0	0	0	0	0	75	225	225	0	;
	100	524.85263644	11.5410373053	275	-275	1.01472904941	100	1	550	220	0	0	0	0	0	0	0	60.5	181.5	275	0	;
	100	474.905762776	10.0105397353	250	-250	1.01472904941	100	1	500	200	0	0	0	0	0	0	0	55	165	250	0	;
	100	0	0	0	0	1.01472904941	100	0	0	0	0	0	0	0	0	0	0	0	0	0	0	;
	100	474.905762776	10.0105397353	250	-250	1.01472904941	100	1	500	200	0	0	0	0	0	0	0	55	165	250	0	;
	100	475.486911476	10.0105397353	250	-250	1.01472904941	100	1	500	200	0	0	0	0	0	0	0	55	165	250	0	;
	100	474.905762776	10.0105397353	250	-250	1.01472904941	100	1	500	200	0	0	0	0	0	0	0	55	165	250	0	;
	100	993.404943852	18.1261017057	509.515	-509.515	1.01472904941	100	1	1019.03	407.612	0	0	0	0	0	0	0	112.0933	336.2799	509.515	0	;
	100	993.404943852	18.1261017057	509.515	-509.515	1.01472904941	100	1	1019.03	407.612	0	0	0	0	0	0	0	112.0933	336.2799	509.515	0	;
	106	970.947377355	30.1214184667	509	-509	0.998844146989	100	1	1018	407.2	0	0	0	0	0	0	0	111.98	335.94	509	0	;
	108	0	0	359.2	-359.2	0.996954491819	100	0	718.4	373.568	0	0	0	0	0	0	0	119.7333333	359.2	359.2	0	;
	124	935.597291283	53.1793273207	475	-475	1.00874067907	100	1	950	902.5	0	0	0	0	0	0	0	28.5	85.5	475	0	;
	124	935.597291283	53.1793273207	475	-475	1.00874067907	100	1	950	902.5	0	0	0	0	0	0	0	28.5	85.5	475	0	;
	124	985.14333194	53.9920400005	500	-500	1.00874067907	100	1	1000	950	0	0	0	0	0	0	0	30	90	500	0	;
	124	985.14333194	53.9920400005	500	-500	1.00874067907	100	1	1000	950	0	0	0	0	0	0	0	30	90	500	0	;
	124	985.14333194	53.9920400005	500	-500	1.00874067907	100	1	1000	950	0	0	0	0	0	0	0	30	90	500	0	;
	124	985.14333194	53.9920400005	500	-500	1.00874067907	100	1	1000	950	0	0	0	0	0	0	0	30	90	500	0	;
	128	0	0	57.623	-57.623	0.984895284159	100	0	115.246	59.92792	0	0	0	0	0	0	0	19.20766667	57.623	57.623	0	;
	134	0	0	262.75	-262.75	0.993873796014	100	0	525.5	273.26	0	0	0	0	0	0	0	87.58333333	262.75	262.75	0	;
	134	0	0	432.1	-432.1	0.993873796014	100	0	864.2	449.384	0	0	0	0	0	0	0	144.0333333	432.1	432.1	0	;
	134	0	0	247.3	-247.3	0.993873796014	100	0	494.6	257.192	0	0	0	0	0	0	0	82.43333333	247.3	247.3	0	;
	134	0	0	247.3	-247.3	0.993873796014	100	0	494.6	257.192	0	0	0	0	0	0	0	82.43333333	247.3	247.3	0	;
	137	327.692047124	34.0511679613	170	-170	0.990927796029	100	1	340	136	0	0	0	0	0	0	0	37.4	112.2	170	0	;
	137	316.011402343	32.9057123003	164.3	-164.3	0.990927796029	100	1	328.6	131.44	0	0	0	0	0	0	0	36.146	108.438	164.3	0	;
	156	0	0	185.35	-185.35	0.977011527375	100	0	370.7	192.764	0	0	0	0	0	0	0	61.78333333	185.35	185.35	0	;
	160	0	0	0	0	0.971300771816	100	0	0	0	0	0	0	0	0	0	0	0	0	0	0	;
	166	686.282420236	92.4386951389	350	-350	0.992062974113	100	1	700	665	0	0	0	0	0	0	0	21	63	350	0	;
	166	686.282420236	92.4386951389	350	-350	0.992062974113	100	1	700	665	0	0	0	0	0	0	0	21	63	350	0	;
	166	686.282420236	92.4386951389	350	-350	0.992062974113	100	1	700	665	0	0	0	0	0	0	0	21	63	350	0	;
	166	981.78677176	103.594209142	500	-500	0.992062974113	100	1	1000	950	0	0	0	0	0	0	0	30	90	500	0	;
	166	981.78677176	103.594209142	500	-500	0.992062974113	100	1	1000	950	0	0	0	0	0	0	0	30	90	500	0	;
	167	0	0	150	-150	0.990904485006	100	0	300	156	0	0	0	0	0	0	0	50	150	150	0	;
	167	0	0	225	-225	0.990904485006	100	0	450	234	0	0	0	0	0	0	0	75	225	225	0	;
	167	0	0	225	-225	0.990904485006	100	0	450	234	0	0	0	0	0	0	0	75	225	225	0	;
	167	0	0	435.95	-435.95	0.990904485006	100	0	871.9	453.388	0	0	0	0	0	0	0	145.3166667	435.95	435.95	0	;
	167	0	0	221.4	-221.4	0.990904485006	100	0	442.8	230.256	0	0	0	0	0	0	0	73.8	221.4	221.4	0	;
	172	0	0	22.918	-22.918	0.988470504731	100	0	45.836	23.83472	0	0	0	0	0	0	0	7.639333333	22.918	22.918	0	;
	175	636.449044117	82.3193784123	325	-325	1.00222791834	100	1	650	617.5	0	0	0	0	0	0	0	19.5	58.5	325	0	;
	175	931.278457338	93.3540175116	475	-475	1.00222791834	100	1	950	902.5	0	0	0	0	0	0	0	28.5	85.5	475	0	;
	175	931.278457338	93.3540175116	475	-475	1.00222791834	100	1	950	902.5	0	0	0	0	0	0	0	28.5	85.5	475	0	;
	175	980.464907594	94.4666281921	500	-500	1.00222791834	100	1	1000	950	0	0	0	0	0	0	0	30	90	500	0	;
	175	980.464907594	94.4666281921	500	-500	1.00222791834	100	1	1000	950	0	0	0	0	0	0	0	30	90	500	0	;
	175	1374.39488611	99.9152454174	700	-700	1.00222791834	100	1	1400	1330	0	0	0	0	0	0	0	42	126	700	0	;
	175	1374.39488611	99.9152454174	700	-700	1.00222791834	100	1	1400	1330	0	0	0	0	0	0	0	42	126	700	0	;
	180	0	0	13.15	-13.15	0.988988602287	100	0	26.3	13.676	0	0	0	0	0	0	0	4.383333333	13.15	13.15	0	;
	186	0	0	225	-225	0.995568781952	100	0	450	234	0	0	0	0	0	0	0	75	225	225	0	;
	186	397.26019101	66.3253138362	225	-225	0.995568781952	100	1	450	234	0	0	0	0	0	0	0	75	225	225	0	;
	186	0	0	225	-225	0.995568781952	100	0	450	234	0	0	0	0	0	0	0	75	225	225	0	;
	186	0	0	225	-225	0.995568781952	100	0	450	234	0	0	0	0	0	0	0	75	225	225	0	;
	190	483.602133439	24.9817473528	280	-280	1	100	1	560	224	0	0	0	0	0	0	0	61.6	184.8	280	0	;
	190	483.602133439	24.9817473528	280	-280	1	100	1	560	224	0	0	0	0	0	0	0	61.6	184.8	280	0	;
	190	428.97467729	25.7317436002	250	-250	1	100	1	500	200	0	0	0	0	0	0	0	55	165	250	0	;
	190	428.97467729	25.7317436002	250	-250	1	100	1	500	200	0	0	0	0	0	0	0	55	165	250	0	;
	190	919.752663871	20.3681358513	520	-520	1	100	1	1040	416	0	0	0	0	0	0	0	114.4	343.2	520	0	;
	190	923.465203703	20.3681358513	520	-520	1	100	1	1040	416	0	0	0	0	0	0	0	114.4	343.2	520	0	;
	193	0	0	0	0	1.00233902174	100	0	0	0	0	0	0	0	0	0	0	0	0	0	0	;
	193	370.990873994	33.4517084923	250	-250	1.00233902174	100	1	500	200	0	0	0	0	0	0	0	55	165	250	0	;
	193	351.482842044	33.4517084923	250	-250	1.00233902174	100	1	500	200	0	0	0	0	0	0	0	55	165	250	0	;
	193	370.990873994	33.4517084923	250	-250	1.00233902174	100	1	500	200	0	0	0	0	0	0	0	55	165	250	0	;
	193	338.383730931	33.4517084923	250	-250	1.00233902174	100	1	500	200	0	0	0	0	0	0	0	55	165	250	0	;
	193	370.990873994	33.4517084923	250	-250	1.00233902174	100	1	500	200	0	0	0	0	0	0	0	55	165	250	0	;
	193	338.383730931	33.4517084923	250	-250	1.00233902174	100	1	500	200	0	0	0	0	0	0	0	55	165	250	0	;
	193	304.840632893	33.4517084923	250	-250	1.00233902174	100	1	500	200	0	0	0	0	0	0	0	55	165	250	0	;
	71	1013.16150479	7.20383135834	520	-520	0.986759138225	100	1	1040	416	0	0	0	0	0	0	0	114.4	343.2	520	0	;
	60	0	0	247.5	-247.5	1.01262155431	100	0	495	257.4	0	0	0	0	0	0	0	82.5	247.5	247.5	0	;
	42	998.798205436	37.1204963645	512.7	-512.7	0.986537390818	100	1	1025.4	533.208	0	0	0	0	0	0	0	170.9	512.7	512.7	0	;
	11	0	0	0	0	0.990441507823	100	0	0	0	0	0	0	0	0	0	0	0	0	0	0	;
	172	0	0	59.486	-59.486	0.988470504731	100	0	118.972	61.86544	0	0	0	0	0	0	0	19.8286666667	59.486	59.486	0	;
	82	1379.91728716	60.0745580612	700	-700	0.987555010164	100	1	1400	1330	0	0	0	0	0	0	0	42	126	700	0	;
	75	970.347517192	30.4461836337	525	-525	0.992251491047	100	1	1050	420	0	0	0	0	0	0	0	115.5	346.5	525	0	;
	64	0	0	298.5855	-298.5855	1.00370277756	100	0	597.171	310.52892	0	0	0	0	0	0	0	99.5285	298.5855	298.5855	0	;
	160	0	0	135	-135	0.971300771816	100	0	270	140.4	0	0	0	0	0	0	0	45	135	135	0	;
	192	754.49053655	36.4672224049	506	-506	1.0002765471	100	1	1012	526.24	0	0	0	0	0	0	0	168.666666667	506	506	0	;
	167	0	0	552.3	-552.3	0.990904485006	100	0	1104.6	574.392	0	0	0	0	0	0	0	184.1	552.3	552.3	0	;
	75	0	0	525	-525	0.992251491047	100	0	1050	546	0	0	0	0	0	0	0	175	525	525	0	;
	62	0	0	135	-135	1.01136043072	100	0	270	140.4	0	0	0	0	0	0	0	45	135	135	0	;
	52	0	0	280.5	-280.5	0.993340035589	100	0	561	291.72	0	0	0	0	0	0	0	93.5	280.5	280.5	0	;
	11	0	0	247.73	-247.73	0.990441507823	100	0	495.46	257.6392	0	0	0	0	0	0	0	82.5766666667	247.73	247.73	0	;
	24	0	0	142.5	-142.5	0.992956074957	100	0	285	148.2	0	0	0	0	0	0	0	47.5	142.5	142.5	0	;
	26	0	0	249	-249	0.993236861782	100	0	498	258.96	0	0	0	0	0	0	0	83	249	249	0	;
...
];

% branch data
%	fbus	tbus	r	x	b	rateA	rateB	rateC	ratio	angle	status	angmin	angmax	Pf	Qf	Pt	Qt
mpc.branch = [
	1	2	0.001953667	0.017794207	0.057753945	904	904	904	0	0	1	-30	30	206.573405029	-50.1067962118	-205.668941422	52.7125786057	;
	1	3	0.002346024	0.021367842	0.069352749	904	904	904	0	0	1	-30	30	167.814745812	-44.3778607366	-167.093003197	44.1854155521	;
	1	66	0.002789894	0.025410654	0.082474341	904	904	904	0	0	1	-30	30	-437.708249341	88.1526058305	443.462471752	-43.7063440508	;
	2	3	0.000230027	0.002463512	0.207508013	2172	2172	2172	0	0	1	-30	30	-37.0821643658	-23.4930590888	37.0858073449	3.18096929086	;
	2	4	0.001097043	0.009991982	0.032430577	904	904	904	0	0	1	-30	30	87.5307181531	-23.3485866318	-87.4396816301	20.9944357915	;
	2	6	0.004587512	0.041783555	0.135615211	904	904	904	0	0	1	-30	30	78.6898269543	-13.5240084762	-78.3978499152	2.89104210086	;
	3	4	0.000157872	0.001690763	0.142417379	2172	2172	2172	0	0	1	-30	30	574.527056248	-107.467148961	-573.979694412	99.3439318308	;
	3	7	0.001539844	0.014025061	0.04552058	904	904	904	0	0	1	-30	30	79.8892327853	-26.9370034197	-79.7794896907	23.4597984038	;
	3	28	0.000668777	0.007162388	0.603306441	2172	2172	2172	0	0	1	-30	30	-875.408007322	51.9378092311	880.676873398	-54.8273488682	;
	4	7	0.001330617	0.012119404	0.039335464	904	904	904	0	0	1	-30	30	12.5461088601	-15.3662619187	-12.541534768	11.5361351173	;
	4	8	0.000413018	0.004423289	0.372585094	2172	2172	2172	0	0	1	-30	30	502.338507863	-35.7683120457	-501.276799686	10.5589378881	;
	5	16	0.00309813	0.028218105	0.091586372	904	904	904	0	0	1	-30	30	731.646404891	-25.3781899464	-714.722108819	170.496485152	;
	5	20	0.003233724	0.029453105	0.095594761	904	904	904	0	0	1	-30	30	671.793878764	-19.3341732996	-656.905887414	145.533652757	;
	5	66	0.002753227	0.025076687	0.081390398	904	904	904	0	0	1	-30	30	143.601803243	22.0296552649	-143.003878041	-24.4861497336	;
	5	70	0.001710666	0.015580931	0.050570403	904	904	904	0	0	1	-30	30	201.58080292	46.1776370181	-200.830714888	-44.2522444299	;
	6	8	0.001796592	0.016363559	0.053110546	904	904	904	0	0	1	-30	30	-12.165657983	-3.58428758006	12.1683890068	-1.59756746661	;
	6	11	0.001545809	0.014079394	0.045696926	904	904	904	0	0	1	-30	30	12.3464746929	-7.12847438026	-12.3436930907	2.67334000702	;
	7	9	0.000740338	0.006743076	0.021885732	904	904	904	0	0	1	-30	30	138.634788151	-39.7961931382	-138.479184838	39.0524560166	;
	7	14	0.000255269	0.002733843	0.230278712	2172	2172	2172	0	0	1	-30	30	381.533930646	-93.2724093041	-381.139594425	74.76509828	;
	7	28	0.000583767	0.00625196	0.526618746	2172	2172	2172	0	0	1	-30	30	-1184.24891906	134.341266379	1192.70633969	-95.6638143261	;
	8	10	0.000160584	0.000184873	0.901984702	1416	1416	1416	0	0	1	-30	30	-579.481605136	14.2903519172	580.037042676	-102.186266007	;
	8	11	0.000158062	0.001692798	0.142588761	2172	2172	2172	0	0	1	-30	30	221.272195309	-34.193451083	-221.192093548	21.0654085974	;
	8	14	0.000269282	0.002883925	0.242920462	2172	2172	2172	0	0	1	-30	30	-357.405533447	-109.530850616	357.782431542	89.6499760413	;
	9	12	0.000119405	0.000137466	0.167672111	708	708	708	0	0	1	-30	30	198.895899625	-76.4201686819	-198.84253586	59.9007612831	;
	9	13	0.000176983	0.000203752	0.248523638	708	708	708	0	0	1	-30	30	-26.4483838252	-51.6927677266	26.4524138864	27.1145469093	;
	9	15	0.000297907	0.000342968	0.41832935	708	708	708	0	0	1	-30	30	-339.062036223	66.2741830548	339.431096762	-107.253105108	;
	10	14	0.00105221	0.00958364	0.031105236	904	904	904	0	0	1	-30	30	-94.94624692	-22.0765289561	95.0473248479	19.9320533896	;
	10	24	0.000243464	0.000280289	1.367512381	1416	1416	1416	0	0	1	-30	30	-877.084963497	58.6141502077	879.030672791	-190.961079618	;
	11	21	0.00015784	0.00169041	0.142387631	2172	2172	2172	0	0	1	-30	30	-260.379599008	-65.0544691079	260.494111979	52.2930223283	;
	11	25	0.00110679	0.010080759	0.032718716	904	904	904	0	0	1	-30	30	-61.091514931	-14.1850744336	61.135409002	11.3688156442	;
	12	14	0.000665432	0.00606083	0.019671394	904	904	904	0	0	1	-30	30	10.9693823232	0.550272809954	-10.9685569031	-2.48742186556	;
	12	18	0.000258897	0.000298056	0.363549377	708	708	708	0	0	1	-30	30	-116.665931991	-90.9051097246	116.715499418	54.9976607622	;
	13	16	0.000661549	0.006025463	0.019556605	904	904	904	0	0	1	-30	30	-36.7376266566	-12.7621681165	36.7475823011	10.9162731286	;
	13	17	0.000189196	0.000217813	0.265674267	708	708	708	0	0	1	-30	30	-245.966147903	-29.7531443753	246.082377982	3.59092183594	;
	13	22	0.000821755	0.00748463	0.024292563	904	904	904	0	0	1	-30	30	-30.3429630242	-10.219424743	30.3512863455	7.88976031126	;
	14	18	9.94e-05	0.000114489	0.558582953	1416	1416	1416	0	0	1	-30	30	-701.151294557	-16.3487641456	701.645814924	-38.3308473272	;
	14	19	2.7e-05	6.2e-05	1.344867636	1906	1906	1906	0	0	1	-30	30	24.6908426957	-149.570961405	-24.6887894765	16.6414350424	;
	14	23	0.000322118	0.000370841	0.45232683	708	708	708	0	0	1	-30	30	263.725884701	-51.1414429545	-263.496519817	6.73057378867	;
	15	16	0.000110729	0.000127478	0.155489196	708	708	708	0	0	1	-30	30	-455.608855641	97.6736642105	455.853334805	-112.798469928	;
	16	17	1.61e-05	3.7e-05	7.216516162	5718	5718	5718	0	0	1	-30	30	4159.34533342	-934.69830517	-4156.48118174	226.310515716	;
	16	20	0.000640865	0.005837068	0.018945138	904	904	904	0	0	1	-30	30	-138.973159505	56.754561003	139.119553514	-57.2944047667	;
	16	22	3.29e-05	7.57e-05	1.640782241	1906	1906	1906	0	0	1	-30	30	-54.1627900938	-19.0309763635	54.1650515252	-143.592673806	;
	16	28	0.000193401	0.002071259	0.697869898	4344	4344	4344	0	0	1	-30	30	-3928.71445519	643.095062619	3959.7267402	-379.929427694	;
	17	18	8.5e-06	1.95e-05	1.693948976	3812	3812	3812	0	0	1	-30	30	3426.66363294	-278.275160802	-3425.65252729	112.888144448	;
	18	19	3.3e-05	3.8e-05	0.742	2832	2832	2832	0	0	1	-30	30	2112.01665305	-185.733550341	-2110.52204838	114.060379611	;
	18	30	0.000754369	0.006870878	0.022300533	904	904	904	0	0	1	-30	30	-9.76442800434	5.67543922716	9.76550493247	-7.87201966948	;
	19	23	4.24e-05	4.88e-05	0.952412124	2832	2832	2832	0	0	1	-30	30	2005.36213506	-175.482270987	-2003.63012061	83.4046378202	;
	20	22	0.000644357	0.005868869	0.019048354	904	904	904	0	0	1	-30	30	137.381878844	-56.3965409416	-137.238485632	55.8192148972	;
	21	25	0.000588113	0.0053566	0.017385701	904	904	904	0	0	1	-30	30	-32.6666695691	-7.7234228749	32.6733308608	6.07274678586	;
	21	34	9.49e-05	0.001016882	0.085654572	2172	2172	2172	0	0	1	-30	30	-538.127253777	-112.668749956	538.417943629	107.343091487	;
	22	29	0.000157753	0.000181614	0.886083495	1416	1416	1416	0	0	1	-30	30	780.401403753	-162.494628167	-779.409673814	75.9031681165	;
	22	36	0.000114952	0.001231098	0.103698609	2172	2172	2172	0	0	1	-30	30	109.043754386	46.1245854013	-109.026915852	-56.2143730721	;
	22	38	0.000222736	0.002385427	0.200930653	2172	2172	2172	0	0	1	-30	30	-774.266280945	171.865564404	775.687791309	-176.507839686	;
	22	46	0.000425686	0.004558955	0.384012537	2172	2172	2172	0	0	1	-30	30	-523.706444174	-91.2794899007	524.906825675	65.8508147937	;
	23	24	5.52e-05	0.000503	0.0147	2712	2712	2712	0	0	1	-30	30	1003.16092549	-12.2411767516	-1002.59799813	15.9206769051	;
	23	32	2.02e-05	4.64e-05	1.00675716	1906	1906	1906	0	0	1	-30	30	634.524110977	-72.0430930331	-634.441601926	-27.1151392441	;
	23	33	0.000169968	0.000195677	0.238673524	708	708	708	0	0	1	-30	30	259.873363985	-48.2585117009	-259.754765085	24.8485409645	;
	24	26	0.000118	0.000136	0.664	1416	1416	1416	0	0	1	-30	30	-419.83355099	126.741646336	420.074936974	-191.949815611	;
	25	26	0.00041452	0.003775492	0.012253963	904	904	904	0	0	1	-30	30	-66.9295887423	-14.5604902233	66.9492619254	13.5317882386	;
	25	34	0.000619848	0.00564564	0.018323828	904	904	904	0	0	1	-30	30	-66.0947293057	-12.429809359	66.1230587806	10.881159564	;
	26	32	0.000607908	0.005536893	0.01797087	904	904	904	0	0	1	-30	30	-71.4420862585	5.54718914258	71.4737927533	-7.03141905653	;
	26	34	4.5e-05	0.000103577	2.245327702	1906	1906	1906	0	0	1	-30	30	-1059.0110538	99.0026604264	1059.54269646	-319.343310325	;
	27	34	9.33e-05	0.000999417	0.336734	4344	4344	4344	0	0	1	-30	30	158.879669099	-12.4727600595	-158.855801186	-20.5148936051	;
	28	38	0.001685665	0.015353221	0.049831335	904	904	904	0	0	1	-30	30	410.730118874	-37.4714975063	-407.82288889	59.0386506391	;
	28	41	0.002015591	0.018358223	0.059584548	904	904	904	0	0	1	-30	30	79.7179936605	39.0574660629	-79.5519126047	-43.3607285263	;
	28	50	9.99e-05	0.00321	1.63	7290	7290	7290	0	0	1	-30	30	818.411289076	-654.467757151	-817.397882066	523.477325869	;
	28	80	0.000122152	0.003924627	7.991861101	14580	14580	14580	0	0	1	-30	30	-7297.41134077	1255.17615229	7366.80400702	196.533911778	;
	29	30	8.04e-06	9.26e-06	0.04515506	1416	1416	1416	0	0	1	-30	30	609.201742905	77.017353633	-609.171065252	-81.4480961002	;
	29	36	3.7e-05	8.52e-05	1.846241882	1906	1906	1906	0	0	1	-30	30	-427.807269168	-208.931860224	427.880907379	26.4401628681	;
	30	31	0.00033011	0.003006676	0.009758648	904	904	904	0	0	1	-30	30	130.905083149	42.4698043384	-130.841727702	-42.8562101191	;
	31	33	0.000235829	0.000271499	0.331156608	708	708	708	0	0	1	-30	30	-186.434838058	31.5434867465	186.523489245	-64.0894005394	;
	31	36	0.00107165	0.0097607	0.031679912	904	904	904	0	0	1	-30	30	-44.4134487909	-17.3680802037	44.4376140629	14.4594817424	;
	32	33	6.05e-05	6.97e-05	0.1912274	1062	1062	1062	0	0	1	-30	30	401.521262226	4.17688477264	-401.422295383	-22.9262938907	;
	32	37	0.000239942	0.002569698	0.216452349	2172	2172	2172	0	0	1	-30	30	-88.9212275183	1.47782773636	88.9408149515	-22.6231442769	;
	32	44	0.000338016	0.003620039	0.304925228	2172	2172	2172	0	0	1	-30	30	-299.959599524	-25.0394989676	300.268176349	-1.78625890854	;
	34	37	6.47e-05	0.000692975	0.058371101	2172	2172	2172	0	0	1	-30	30	-728.49282206	106.04561637	728.848472121	-107.99627684	;
	35	37	0.000950447	0.008656772	0.028096937	904	904	904	0	0	1	-30	30	-45.3191388968	-12.7510666738	45.3402327735	10.1754305571	;
	35	40	0.001104834	0.01006295	0.032660912	904	904	904	0	0	1	-30	30	-257.23720931	-0.230251277013	257.980460039	3.77720624459	;
	36	38	0.000952048	0.00867136	0.028144286	904	904	904	0	0	1	-30	30	-227.142269363	45.2370348913	227.659531684	-43.3062731229	;
	36	43	0.001604892	0.014617531	0.047443535	904	904	904	0	0	1	-30	30	106.974112165	19.0106558997	-106.781134043	-21.9257880978	;
	36	44	0.000327256	0.003504805	0.295218756	2172	2172	2172	0	0	1	-30	30	-213.704579712	7.06317829774	213.857156009	-34.6438456674	;
	36	46	0.000315296	0.00337672	0.284429868	2172	2172	2172	0	0	1	-30	30	-746.399236839	-129.252504665	748.216466455	120.379534071	;
	37	40	0.000119	0.00127	0.429	4344	4344	4344	0	0	1	-30	30	-1736.0534745	33.1514655042	1739.69263552	-36.7038854377	;
	38	42	0.001675214	0.015258027	0.049522368	904	904	904	0	0	1	-30	30	-133.048003895	56.4964331916	133.407674614	-58.0725528553	;
	38	45	0.001624604	0.014797065	0.048026242	904	904	904	0	0	1	-30	30	-62.0356850641	-59.5562001962	62.1529476463	55.8416518926	;
	38	46	0.001525585	0.013895192	0.045099066	904	904	904	0	0	1	-30	30	-38.5904100567	-57.0273942524	38.6599025153	53.1751175066	;
	38	84	0.000977268	0.010466224	0.881597169	2172	2172	2172	0	0	1	-30	30	-715.394337835	185.508141258	720.985016337	-211.365956696	;
	39	44	0.000549539	0.00500526	0.064981493	1808	1808	1808	0	0	1	-30	30	-607.093229794	-56.7074773312	609.183347519	69.3563828253	;
	40	44	0.000186834	0.002000932	0.16854368	2172	2172	2172	0	0	1	-30	30	676.046458012	-62.1525199192	-675.178243946	54.7707775083	;
	40	47	0.000177428	0.001900194	0.160058219	2172	2172	2172	0	0	1	-30	30	994.294396244	89.5791390708	-992.505096394	-86.2031375701	;
	41	42	0.001299581	0.011836722	0.038417974	904	904	904	0	0	1	-30	30	230.305242648	-50.5269466996	-229.560509805	53.5831947303	;
	41	52	0.003101751	0.028251087	0.091693421	904	904	904	0	0	1	-30	30	50.3673853793	-44.4239075476	-50.2347014906	36.6756463427	;
	41	77	0.002217352	0.020195883	0.065548969	904	904	904	0	0	1	-30	30	-387.938595142	119.629739158	391.735648569	-91.300733098	;
	42	46	0.00172419	0.015704108	0.050970195	904	904	904	0	0	1	-30	30	96.7536994129	-105.457046098	-96.3999972389	103.642669867	;
	42	84	0.004178797	0.038060939	0.123532864	904	904	904	0	0	1	-30	30	-141.956251884	33.0513249416	142.887001644	-36.5066505701	;
	43	44	0.000449352	0.004092749	0.013283673	904	904	904	0	0	1	-30	30	-562.529954616	-46.4486190645	563.9902087	58.4404879796	;
	44	48	0.001280818	0.011665829	0.037863315	904	904	904	0	0	1	-30	30	-190.491428938	-60.7270018133	191.005932787	61.6300595556	;
	44	57	0.000681396	0.007297531	0.614689901	2172	2172	2172	0	0	1	-30	30	-1046.47900082	-122.705436018	1054.07844025	142.229033522	;
	45	46	0.000111099	0.001189836	0.100222927	2172	2172	2172	0	0	1	-30	30	322.584068172	74.8985432936	-322.462015348	-83.6545428392	;
	45	50	0.00040114	0.004296079	0.361869864	2172	2172	2172	0	0	1	-30	30	-707.735723133	-129.045974365	709.783276393	114.300734836	;
	46	48	0.001260894	0.011484355	0.037274311	904	904	904	0	0	1	-30	30	-39.0692636593	-23.3853196926	39.0942780252	19.8642832533	;
	46	50	0.000334595	0.003583402	0.301839233	2172	2172	2172	0	0	1	-30	30	-954.953242615	-170.806912469	958.076952462	173.710065762	;
	47	49	0.001906713	0.017366547	0.056365905	904	904	904	0	0	1	-30	30	-238.292946688	-73.7113097319	239.492130858	78.9930374457	;
	47	60	0.000752607	0.008060181	0.67892992	2172	2172	2172	0	0	1	-30	30	-1402.55043104	-84.6979284358	1417.63333285	178.056756076	;
	48	49	0.001480551	0.013485018	0.043767781	904	904	904	0	0	1	-30	30	-102.778485666	-26.5092193353	102.942197234	23.5638925158	;
	48	51	0.001270961	0.011576049	0.037571917	904	904	904	0	0	1	-30	30	-326.607268983	-102.411913629	328.078603317	111.960734038	;
	49	51	0.000899122	0.008189302	0.0598043	1356	1356	1356	0	0	1	-30	30	-292.461833639	-109.514602666	293.31696403	111.142179327	;
	49	53	0.002230934	0.020319589	0.065950477	904	904	904	0	0	1	-30	30	-431.703902931	-31.215548388	435.80301325	61.7072734132	;
	50	51	0.000183433	0.001964511	0.165475847	2172	2172	2172	0	0	1	-30	30	-387.589608399	-486.305847556	388.269394206	476.513971246	;
	50	54	0.000298513	0.003196975	0.269289514	2172	2172	2172	0	0	1	-30	30	-115.871439336	74.5571031204	115.933463587	-101.335183129	;
	50	62	4.12e-05	0.001322961	2.693994224	14580	14580	14580	0	0	1	-30	30	-1371.43365024	-132.538283192	1372.19222972	-118.48074521	;
	51	55	0.001436718	0.01308578	0.042471992	904	904	904	0	0	1	-30	30	-152.904944992	59.6252941069	153.28007963	-60.6094907504	;
	51	57	0.00189377	0.017248658	0.055983277	904	904	904	0	0	1	-30	30	-101.698909851	63.3603548609	101.966747037	-66.7015834114	;
	52	54	0.001933006	0.017606027	0.057143176	904	904	904	0	0	1	-30	30	-49.0175809538	-81.5001576987	49.1859270115	77.3096619158	;
	52	56	0.001462649	0.013321963	0.04323856	904	904	904	0	0	1	-30	30	15.9901443723	-49.2728253701	-15.9534148634	45.3146676025	;
	52	84	0.001585688	0.014442614	0.046875812	904	904	904	0	0	1	-30	30	-286.237963467	133.745644324	287.852121398	-123.60327415	;
	53	55	0.000288514	0.003089893	1.041078801	4344	4344	4344	0	0	1	-30	30	1433.38178698	267.848832173	-1427.48799541	-313.381686413	;
	53	58	0.000270064	0.002892303	0.243626177	2172	2172	2172	0	0	1	-30	30	-1263.24724873	238.1474957	1267.48634439	-218.416622428	;
	53	63	2.79e-05	0.000896312	1.825192122	14580	14580	14580	0	0	1	-30	30	393.071368319	591.203716154	-392.90574035	-777.626688858	;
	54	55	0.002132132	0.019419691	0.063029714	904	904	904	0	0	1	-30	30	-122.491238675	-24.1455661904	122.815120858	20.6440118294	;
	54	61	0.001817125	0.016550571	0.053717525	904	904	904	0	0	1	-30	30	-39.4450072791	-2.4860241225	39.4728195455	-2.72531763306	;
	54	62	0.000345552	0.003700749	0.311723639	2172	2172	2172	0	0	1	-30	30	-386.121547141	-61.4863342548	386.6353996	35.2023224014	;
	55	57	0.000154208	0.001651521	0.139111914	2172	2172	2172	0	0	1	-30	30	141.380212167	199.576816724	-141.286341068	-212.857034682	;
	55	64	0.003142511	0.028622331	0.092898352	904	904	904	0	0	1	-30	30	-76.3000783666	45.1388643317	76.5536135768	-52.2957659907	;
	56	61	0.001408725	0.01283082	0.041644479	904	904	904	0	0	1	-30	30	-134.974053535	-60.407437076	135.278968431	58.9850922633	;
	57	60	0.001430752	0.01303144	0.042295623	904	904	904	0	0	1	-30	30	-248.259539635	20.9805684083	249.128774873	-17.3960108571	;
	57	97	0.000552148	0.005913329	0.498094995	2172	2172	2172	0	0	1	-30	30	-1517.05027728	200.543698911	1529.74413182	-115.519384527	;
	58	59	6.17e-05	0.00066	0.501	6516	6516	6516	0	0	1	-30	30	-4763.29273669	118.327399588	4776.63219121	-28.3854373563	;
	58	63	0.00017	0.00182	0.613	4344	4344	4344	0	0	1	-30	30	2215.40228369	-27.9513821176	-2207.45911459	48.7871807161	;
	60	63	0.000254942	0.002730347	0.229984176	2172	2172	2172	0	0	1	-30	30	-348.870582802	-322.202193333	349.412751208	304.208797594	;
	60	100	0.000568608	0.006089613	0.512943851	2172	2172	2172	0	0	1	-30	30	-1487.20904388	144.609720854	1499.63587997	-64.2291785721	;
	61	62	0.000190755	0.001737417	0.022556263	1808	1808	1808	0	0	1	-30	30	-446.555135388	-90.1067614753	446.943628334	91.3435075413	;
	62	63	6.31e-05	0.00202596	4.125535352	14580	14580	14580	0	0	1	-30	30	-2426.13513281	-604.716917678	2429.86194269	297.970789609	;
	62	64	0.00024797	0.002655684	0.223695124	2172	2172	2172	0	0	1	-30	30	-1180.65332115	409.900835676	1184.463045	-391.807906696	;
	63	97	0.001705746	0.015536123	0.050424972	904	904	904	0	0	1	-30	30	-311.0918694	113.44160671	312.892716372	-102.24745802	;
	64	96	0.001229987	0.011202852	0.036360649	904	904	904	0	0	1	-30	30	-232.98957131	19.5326793511	233.657914581	-17.1113520408	;
	64	98	0.00145865	0.013285543	0.043120356	904	904	904	0	0	1	-30	30	8.26818680846	47.7302237849	-8.23114069939	-51.7078214337	;
	64	99	0.00122871	0.011191219	0.036322892	904	904	904	0	0	1	-30	30	87.5613543043	71.1511220847	-87.4028815618	-73.3336964429	;
	64	102	0.00020466	0.002191839	0.73849704	4344	4344	4344	0	0	1	-30	30	-1605.48568179	257.526718637	1610.89858013	-273.766951182	;
	65	68	0.001222283	0.011132689	0.036132921	904	904	904	0	0	1	-30	30	-310.605872741	1.24052558603	311.837379518	6.50120135659	;
	65	69	0.003164497	0.028822584	0.093548306	904	904	904	0	0	1	-30	30	231.87486389	-12.6944718074	-230.095917609	19.963303771	;
	66	67	0.001903714	0.01733923	0.056277244	904	904	904	0	0	1	-30	30	-303.396594078	61.0164921304	305.300215954	-49.0660479157	;
	66	70	0.001986687	0.018094956	0.058730073	904	904	904	0	0	1	-30	30	-24.9529454221	3.86724774951	24.9667406	-9.38228199561	;
	67	69	0.001285688	0.011710181	0.038007266	904	904	904	0	0	1	-30	30	-328.99021176	46.4445370603	330.480812033	-36.4901817742	;
	68	69	0.00309092	0.02815243	0.091373212	904	904	904	0	0	1	-30	30	361.871708713	-1.01183342256	-357.680488412	30.4221945105	;
	68	71	0.000542799	0.0058132	0.489660838	2172	2172	2172	0	0	1	-30	30	-711.174598089	-9.62827472189	714.018177232	-7.40304301871	;
	69	72	0.003845431	0.035024597	0.113677932	904	904	904	0	0	1	-30	30	217.165888612	-18.2020827147	-215.255118381	24.7877491282	;
	70	72	0.001924592	0.017529395	0.056894456	904	904	904	0	0	1	-30	30	-61.5949373837	29.8807216648	61.6923444072	-34.4285771791	;
	71	73	0.000429713	0.004602092	0.387646086	2172	2172	2172	0	0	1	-30	30	-1014.42429148	71.9650315777	1019.00216661	-60.7333104706	;
	71	78	0.005029715	0.045811184	0.148687523	904	904	904	0	0	1	-30	30	337.263640573	-17.2015763014	-331.382806636	56.2869731877	;
	72	74	0.001850173	0.016851572	0.054694473	904	904	904	0	0	1	-30	30	60.0347940083	0.288001731818	-59.9645000897	-4.8398547427	;
	73	75	0.000154736	0.001657168	0.139587554	2172	2172	2172	0	0	1	-30	30	-2153.43277346	-14.5396227516	2160.78238385	79.5655668624	;
	73	76	0.003400257	0.030969904	0.100517777	904	904	904	0	0	1	-30	30	309.21326977	19.660048968	-305.862338737	1.18085146477	;
	73	79	0.005323371	0.048485836	0.157368535	904	904	904	0	0	1	-30	30	292.429198043	14.8770645737	-287.738798356	12.7314465851	;
	73	80	0.003287737	0.029945065	0.097191498	904	904	904	0	0	1	-30	30	276.334032973	1.95429558471	-273.761116488	12.0643220801	;
	73	81	0.001180594	0.012643784	1.065018618	2172	2172	2172	0	0	1	-30	30	1465.26723388	59.1741612104	-1439.15575456	117.930826337	;
	74	77	0.001050785	0.009570661	0.03106311	904	904	904	0	0	1	-30	30	264.858724303	5.26129650736	-264.080454731	-1.10715498488	;
	74	78	0.003080612	0.028058549	0.091068507	904	904	904	0	0	1	-30	30	-275.143345868	-9.05908903466	277.604796503	22.7289474735	;
	75	82	0.000690812	0.007398375	0.623184303	2172	2172	2172	0	0	1	-30	30	524.045281789	-6.34065890529	-522.114248884	-34.0452977043	;
	76	79	0.00216439	0.019713499	0.063983315	904	904	904	0	0	1	-30	30	230.771544699	-9.16078383219	-229.55691793	14.164746204	;
	77	81	0.002745828	0.0250093	0.081171682	904	904	904	0	0	1	-30	30	-456.741496652	59.4991753665	462.941972559	-10.6987981948	;
	78	81	0.002422622	0.022065501	0.071617111	904	904	904	0	0	1	-30	30	-62.3905101778	59.6568412901	62.5865557266	-64.7572697938	;
	79	80	0.003522928	0.032087205	0.104144155	904	904	904	0	0	1	-30	30	-183.006727396	-5.50411815515	184.256242805	6.9623650603	;
	79	81	0.001905365	0.017354266	0.056326045	904	904	904	0	0	1	-30	30	243.23371798	-38.1642599892	-242.014499744	43.9361791161	;
	79	83	0.001772751	0.016146406	0.052405742	904	904	904	0	0	1	-30	30	311.884456877	2.25378881921	-310.057895504	9.46001117571	;
	80	82	3.61e-05	0.00115912	2.360357594	14580	14580	14580	0	0	1	-30	30	-6868.71928799	-219.411421671	6886.44187825	559.915755989	;
	81	84	0.00122041	0.011115623	0.144310127	1808	1808	1808	0	0	1	-30	30	1521.30110735	-78.5680670243	-1491.48136673	336.402694239	;
	81	86	0.000662535	0.007095536	0.59767536	2172	2172	2172	0	0	1	-30	30	-575.935710369	-28.8705386399	578.250762555	-3.3556152856	;
	82	85	0.004627741	0.042149964	0.136804449	904	904	904	0	0	1	-30	30	316.045079169	7.54010910885	-311.295865266	22.529999983	;
	82	86	0.000927929	0.009937818	0.837088105	2172	2172	2172	0	0	1	-30	30	1424.55718716	13.644862192	-1405.22031273	112.499236868	;
	82	94	0.005001876	0.045557628	0.147864567	904	904	904	0	0	1	-30	30	243.151538449	-8.47487628951	-240.119210863	21.7501023199	;
	83	89	0.003668123	0.033409661	0.108436396	904	904	904	0	0	1	-30	30	69.6190868859	-33.5040258767	-69.3970742642	25.3146543	;
	85	86	0.000987046	0.00899012	0.029178874	904	904	904	0	0	1	-30	30	84.8433455089	-45.1752409669	-84.7488822527	43.2472196548	;
	86	87	0.000301405	0.003227955	0.271898989	2172	2172	2172	0	0	1	-30	30	292.196174532	-78.7254725703	-291.914204633	55.6415981143	;
	86	89	0.003643968	0.033189659	0.107722346	904	904	904	0	0	1	-30	30	220.651224189	-6.14272517926	-218.800741548	12.7217371851	;
	86	90	0.002477336	0.022563841	0.073234554	904	904	904	0	0	1	-30	30	66.0981802507	-13.170199446	-65.9828799427	7.19406898545	;
	86	92	0.000752885	0.008063158	0.67918067	2172	2172	2172	0	0	1	-30	30	111.015774145	-76.5278591853	-110.903812246	12.4223455708	;
	87	90	0.002118269	0.019293421	0.062619884	904	904	904	0	0	1	-30	30	28.7226928783	-2.83004006075	-28.7045138135	-3.02035566568	;
	87	95	0.000515412	0.005519901	0.464955523	2172	2172	2172	0	0	1	-30	30	235.964912939	-57.8846697014	-235.659623331	16.4173135093	;
	88	92	0.001978682	0.018022046	0.058493431	904	904	904	0	0	1	-30	30	210.785536781	-7.24931575962	-209.878363321	9.85621707208	;
	88	94	0.002833759	0.025810183	0.083771075	904	904	904	0	0	1	-30	30	-7.00044632522	5.82285496607	7.00473398041	-13.8859269495	;
	89	93	0.001483845	0.013515018	0.043865152	904	904	904	0	0	1	-30	30	211.249535616	-45.7313021026	-210.521965693	48.1812032096	;
	90	92	0.002453205	0.022344057	0.072521209	904	904	904	0	0	1	-30	30	-27.1372666851	-9.79222315299	27.1571015937	2.99502052018	;
	91	147	0.00275034	0.025050396	0.081305066	904	904	904	0	0	1	-30	30	-183.71256	43.0795658887	184.696728217	-42.2439224233	;
	92	95	0.000460572	0.004932573	0.415483409	2172	2172	2172	0	0	1	-30	30	274.530084926	-30.8867717899	-274.169544967	-5.28983541171	;
...